V1 N001 0 AC 1 0
L1 N001 N002 100m
R1 N002 N003 10
C1 N003 0 10μ
.ac dec 100 1 100k
.backanno
.end